Version 4
SHEET 1 880 680
WIRE 128 80 0 80
WIRE 176 80 128 80
WIRE 176 128 176 80
WIRE 0 144 0 80
WIRE 208 176 176 176
WIRE 128 208 128 80
WIRE 208 224 208 176
WIRE 208 224 176 224
WIRE 0 256 0 224
WIRE 176 272 176 224
FLAG 176 272 0
FLAG 0 256 0
SYMBOL voltage 0 128 R0
WINDOW 123 0 0 Left 2
WINDOW 39 0 0 Left 2
SYMATTR InstName vgs
SYMATTR Value 1.5
SYMBOL nmos4 128 128 R0
SYMATTR InstName M1
SYMATTR Value N_1u
SYMATTR Value2 l=1.5u w=3u
TEXT 0 56 Left 2 !.include cmosedu_models.txt
TEXT 0 24 Left 2 !.op
