Version 4
SHEET 1 880 680
WIRE 64 64 16 64
WIRE 112 64 64 64
WIRE 176 64 112 64
WIRE 176 80 176 64
WIRE 16 112 16 64
WIRE 112 160 112 64
WIRE 128 160 112 160
WIRE 176 160 176 128
WIRE 16 224 16 192
WIRE 176 224 176 176
FLAG 16 224 0
FLAG 176 224 0
FLAG 64 64 vin
SYMBOL voltage 16 96 R0
WINDOW 123 0 0 Left 2
WINDOW 39 0 0 Left 2
SYMATTR InstName V1
SYMATTR Value 1V
SYMBOL nmos4 128 80 R0
SYMATTR InstName M1
SYMATTR Value N_1u
SYMATTR Value2 l=1.5u w=3u
TEXT 16 16 Left 2 !.include cmosedu_models.txt
TEXT 16 32 Left 2 !.op
