Version 4
SHEET 1 880 680
WIRE 176 -80 16 -80
WIRE 176 -48 176 -80
WIRE 16 32 16 -80
WIRE 176 64 176 32
WIRE 176 64 112 64
WIRE 176 80 176 64
WIRE 112 160 112 64
WIRE 128 160 112 160
WIRE 176 160 176 128
WIRE 16 224 16 112
WIRE 176 224 176 176
FLAG 16 224 0
FLAG 176 224 0
FLAG 112 64 vgs
SYMBOL voltage 16 16 R0
WINDOW 123 0 0 Left 2
WINDOW 39 0 0 Left 2
SYMATTR InstName V1
SYMATTR Value 1.5V
SYMBOL nmos4 128 80 R0
SYMATTR InstName M1
SYMATTR Value N_1u
SYMATTR Value2 l=1.5u w=3u
SYMBOL current 176 -48 R0
WINDOW 123 0 0 Left 2
WINDOW 39 0 0 Left 2
SYMATTR InstName I1
SYMATTR Value 39.3µ
TEXT -240 0 Left 2 !.include cmosedu_models.txt
TEXT -240 16 Left 2 !.op
