Version 4
SHEET 1 1044 680
WIRE -208 -928 -208 -1008
WIRE 192 -928 192 -992
WIRE -688 -912 -688 -976
WIRE -448 -912 -448 -976
WIRE -1072 -896 -1200 -896
WIRE -992 -896 -1072 -896
WIRE -992 -864 -992 -896
WIRE 192 -832 192 -848
WIRE 192 -832 96 -832
WIRE -1200 -816 -1200 -896
WIRE -912 -816 -992 -816
WIRE -688 -816 -688 -832
WIRE -688 -816 -784 -816
WIRE -208 -816 -208 -848
WIRE -208 -816 -256 -816
WIRE -1488 -800 -1488 -816
WIRE -448 -800 -448 -832
WIRE -352 -800 -448 -800
WIRE 192 -800 192 -832
WIRE -1072 -784 -1072 -896
WIRE -1040 -784 -1072 -784
WIRE -688 -784 -688 -816
WIRE -448 -784 -448 -800
WIRE -208 -784 -208 -816
WIRE -912 -768 -912 -816
WIRE -912 -768 -992 -768
WIRE -352 -768 -352 -800
WIRE -352 -768 -400 -768
WIRE -320 -768 -352 -768
WIRE 256 -752 192 -752
WIRE -992 -736 -992 -768
WIRE -624 -736 -688 -736
WIRE -448 -736 -528 -736
WIRE -160 -736 -208 -736
WIRE 96 -720 96 -832
WIRE 144 -720 96 -720
WIRE -784 -704 -784 -816
WIRE -736 -704 -784 -704
WIRE -320 -704 -320 -768
WIRE -256 -704 -320 -704
WIRE -1488 -688 -1488 -720
WIRE 192 -688 192 -704
WIRE 256 -688 256 -752
WIRE 256 -688 192 -688
WIRE -688 -672 -688 -688
WIRE -624 -672 -624 -736
WIRE -624 -672 -688 -672
WIRE -528 -672 -528 -736
WIRE -448 -672 -448 -688
WIRE -448 -672 -528 -672
WIRE -208 -672 -208 -688
WIRE -160 -672 -160 -736
WIRE -160 -672 -208 -672
WIRE 192 -656 192 -688
WIRE -688 -640 -688 -672
WIRE -448 -640 -448 -672
WIRE -208 -640 -208 -672
WIRE 32 -576 -48 -576
WIRE 288 -576 208 -576
WIRE 496 -576 416 -576
WIRE -224 -560 -304 -560
WIRE -48 -560 -48 -576
WIRE 208 -560 208 -576
WIRE 416 -560 416 -576
WIRE -512 -544 -592 -544
WIRE -304 -544 -304 -560
WIRE -592 -528 -592 -544
WIRE 32 -528 32 -576
WIRE 288 -528 288 -576
WIRE 496 -528 496 -576
WIRE -224 -512 -224 -560
WIRE -512 -496 -512 -544
WIRE -1312 -464 -1312 -512
WIRE -48 -464 -48 -480
WIRE 208 -464 208 -480
WIRE 416 -464 416 -480
WIRE -928 -448 -1088 -448
WIRE -304 -448 -304 -464
WIRE -592 -432 -592 -448
WIRE 32 -432 32 -448
WIRE 288 -432 288 -448
WIRE 496 -432 496 -448
WIRE 496 -432 480 -432
WIRE -928 -416 -928 -448
WIRE -224 -416 -224 -432
WIRE -512 -400 -512 -416
WIRE -464 -400 -512 -400
WIRE -1088 -384 -1088 -448
WIRE 128 -384 32 -384
WIRE -128 -368 -224 -368
WIRE -1312 -352 -1312 -384
WIRE -1248 -352 -1312 -352
WIRE -1216 -352 -1248 -352
WIRE -1200 -352 -1216 -352
WIRE -1088 -352 -1088 -384
WIRE -416 -352 -512 -352
WIRE -16 -352 -48 -352
WIRE 240 -352 208 -352
WIRE 448 -352 416 -352
WIRE -1248 -336 -1248 -352
WIRE -1248 -336 -1264 -336
WIRE -272 -336 -304 -336
WIRE -560 -320 -592 -320
WIRE 32 -320 32 -336
WIRE 128 -320 128 -384
WIRE 128 -320 32 -320
WIRE -1312 -304 -1360 -304
WIRE -1024 -304 -1088 -304
WIRE -224 -304 -224 -320
WIRE -128 -304 -128 -368
WIRE -128 -304 -224 -304
WIRE -512 -288 -512 -304
WIRE -416 -288 -416 -352
WIRE -416 -288 -512 -288
WIRE -1200 -272 -1200 -352
WIRE -1136 -272 -1200 -272
WIRE 32 -272 32 -320
WIRE 288 -272 288 -336
WIRE 496 -272 496 -336
WIRE -224 -256 -224 -304
WIRE -1360 -240 -1360 -304
WIRE -1312 -240 -1312 -256
WIRE -1312 -240 -1360 -240
WIRE -1088 -240 -1088 -256
WIRE -1024 -240 -1024 -304
WIRE -1024 -240 -1088 -240
WIRE -512 -240 -512 -288
WIRE -1088 -208 -1088 -240
WIRE -1312 -176 -1312 -240
FLAG -992 -736 0
FLAG -1200 -736 0
FLAG -1488 -688 0
FLAG -688 -640 0
FLAG -784 -816 vd
FLAG -688 -976 Vdd
FLAG -1488 -816 Vdd
FLAG -448 -640 0
FLAG -448 -976 Vdd
FLAG -208 -640 0
FLAG -208 -1008 Vdd
FLAG -256 -816 vds_3
FLAG -1312 -512 Vdd
FLAG -928 -336 0
FLAG -1312 -176 0
FLAG -1088 -208 0
FLAG -1088 -384 id2
FLAG -1216 -352 vd2
FLAG -592 -432 0
FLAG -592 -320 vx
FLAG -512 -240 0
FLAG -304 -448 0
FLAG -304 -336 vx
FLAG -224 -256 0
FLAG -48 -464 0
FLAG -48 -352 vx
FLAG 32 -272 0
FLAG 208 -464 0
FLAG 208 -352 vx
FLAG 288 -272 0
FLAG 192 -656 0
FLAG 96 -832 vx
FLAG 192 -992 Vdd
FLAG 416 -464 0
FLAG 416 -352 vx
FLAG 496 -272 0
FLAG -464 -400 vds_100k
FLAG 288 -432 vds_1k
FLAG 480 -432 vds_1m
FLAG -224 -416 vds_50k
FLAG 32 -448 vds_10k
SYMBOL nmos4 -1040 -864 R0
SYMATTR InstName M1
SYMATTR Value N_1u
SYMATTR Value2 l=1.5u w=3u
SYMBOL voltage -1200 -832 R0
SYMATTR InstName vgs
SYMATTR Value 1.5
SYMBOL current -688 -912 R0
WINDOW 123 0 0 Left 2
WINDOW 39 0 0 Left 2
SYMATTR InstName I1
SYMATTR Value 39.3µ
SYMBOL voltage -1488 -816 R0
WINDOW 123 0 0 Left 2
WINDOW 39 0 0 Left 2
SYMATTR InstName VDD
SYMATTR Value 5
SYMBOL nmos4 -736 -784 R0
SYMATTR InstName M2
SYMATTR Value N_1u
SYMATTR Value2 l=1.5u w=3u
SYMBOL current -448 -912 R0
WINDOW 123 0 0 Left 2
WINDOW 39 0 0 Left 2
SYMATTR InstName I2
SYMATTR Value 39.3µ
SYMBOL nmos4 -400 -688 R180
SYMATTR InstName M3
SYMATTR Value N_1u
SYMATTR Value2 l=1.5u w=3u
SYMBOL res -224 -944 R0
SYMATTR InstName R1
SYMATTR Value 40k
SYMBOL nmos4 -256 -784 R0
SYMATTR InstName M5
SYMATTR Value N_1u
SYMATTR Value2 l=1.5u w=6u
SYMBOL current -1312 -464 R0
SYMATTR InstName I3
SYMATTR Value 39.3µ
SYMBOL nmos4 -1264 -256 R180
SYMATTR InstName M4
SYMATTR Value N_1u
SYMATTR Value2 l=1.5u w=3u
SYMBOL voltage -928 -432 R0
WINDOW 123 0 0 Left 2
WINDOW 39 0 0 Left 2
SYMATTR InstName VDS2
SYMATTR Value ""
SYMBOL nmos4 -1136 -352 R0
SYMATTR InstName M6
SYMATTR Value N_1u
SYMATTR Value2 l=1.5u w=3u
SYMBOL nmos4 -560 -400 R0
SYMATTR InstName M7
SYMATTR Value N_1u
SYMATTR Value2 l=1.5u w=3u
SYMBOL res -528 -512 R0
SYMATTR InstName R2
SYMATTR Value 100k
SYMBOL voltage -592 -544 R0
WINDOW 123 0 0 Left 2
WINDOW 39 0 0 Left 2
SYMATTR InstName V1
SYMATTR Value 5
SYMBOL nmos4 -272 -416 R0
SYMATTR InstName M8
SYMATTR Value N_1u
SYMATTR Value2 l=1.5u w=3u
SYMBOL res -240 -528 R0
SYMATTR InstName R3
SYMATTR Value 50k
SYMBOL voltage -304 -560 R0
SYMATTR InstName V2
SYMATTR Value 5
SYMBOL nmos4 -16 -432 R0
SYMATTR InstName M9
SYMATTR Value N_1u
SYMATTR Value2 l=1.5u w=3u
SYMBOL res 16 -544 R0
SYMATTR InstName R4
SYMATTR Value 10k
SYMBOL voltage -48 -576 R0
WINDOW 123 0 0 Left 2
WINDOW 39 0 0 Left 2
SYMATTR InstName V3
SYMATTR Value 5
SYMBOL nmos4 240 -432 R0
SYMATTR InstName M10
SYMATTR Value N_1u
SYMATTR Value2 l=1.5u w=3u
SYMBOL res 272 -544 R0
SYMATTR InstName R5
SYMATTR Value 1k
SYMBOL voltage 208 -576 R0
WINDOW 123 0 0 Left 2
WINDOW 39 0 0 Left 2
SYMATTR InstName V4
SYMATTR Value 5
SYMBOL current 192 -928 R0
WINDOW 123 0 0 Left 2
WINDOW 39 0 0 Left 2
SYMATTR InstName I4
SYMATTR Value 39.3µ
SYMBOL nmos4 144 -800 R0
SYMATTR InstName M11
SYMATTR Value N_1u
SYMATTR Value2 l=1.5u w=3u
SYMBOL nmos4 448 -432 R0
SYMATTR InstName M12
SYMATTR Value N_1u
SYMATTR Value2 l=1.5u w=3u
SYMBOL res 480 -544 R0
SYMATTR InstName R6
SYMATTR Value 1Meg
SYMBOL voltage 416 -576 R0
WINDOW 123 0 0 Left 2
WINDOW 39 0 0 Left 2
SYMATTR InstName V5
SYMATTR Value 5
TEXT -1200 -664 Left 2 !.include cmosedu_models.txt
TEXT -1192 -696 Left 2 !.op
