Version 4
SHEET 1 880 680
WIRE 176 -48 176 -80
WIRE -16 -32 -16 -80
WIRE -16 48 -96 48
WIRE 176 80 176 32
WIRE 176 80 128 80
WIRE 128 96 128 80
WIRE 128 96 64 96
WIRE -16 128 -16 48
WIRE 176 128 176 80
WIRE -224 144 -224 112
WIRE -16 176 -96 176
WIRE 208 176 176 176
WIRE 64 208 64 96
WIRE 64 208 32 208
WIRE 128 208 128 96
WIRE 208 224 208 176
WIRE 208 224 176 224
WIRE -96 256 -96 176
WIRE -16 256 -16 224
WIRE -16 256 -96 256
WIRE -224 272 -224 224
WIRE 176 272 176 224
WIRE -16 288 -16 256
FLAG 176 272 0
FLAG 176 -80 vdd
FLAG -224 272 0
FLAG -224 112 vdd
FLAG -16 -80 vdd
FLAG -96 48 Vd2
FLAG -16 288 0
FLAG 128 80 vgs
SYMBOL nmos4 128 128 R0
SYMATTR InstName M1
SYMATTR Value N_1u
SYMATTR Value2 l=1.5u w=3u
SYMBOL current 176 -48 R0
WINDOW 123 0 0 Left 2
WINDOW 39 0 0 Left 2
SYMATTR InstName I1
SYMATTR Value 3.92966e-005
SYMBOL voltage -224 128 R0
WINDOW 123 0 0 Left 2
WINDOW 39 0 0 Left 2
SYMATTR InstName Vdd
SYMATTR Value 5
SYMBOL nmos4 32 128 M0
SYMATTR InstName M2
SYMATTR Value N_1u
SYMATTR Value2 l=1.5u w=3u
SYMBOL res -32 -48 R0
SYMATTR InstName R1
SYMATTR Value 100k
TEXT 48 344 Left 2 !.include cmosedu_models.txt
TEXT 48 376 Left 2 !.op
