Version 4
SHEET 1 880 680
WIRE 176 -48 176 -80
WIRE -96 80 -224 80
WIRE 16 80 -96 80
WIRE 176 80 176 32
WIRE 176 80 128 80
WIRE 16 96 16 80
WIRE -352 128 -352 96
WIRE -224 128 -224 80
WIRE 176 128 176 80
WIRE 64 144 16 144
WIRE -96 176 -96 80
WIRE -32 176 -96 176
WIRE 208 176 176 176
WIRE 16 208 16 192
WIRE 64 208 64 144
WIRE 64 208 16 208
WIRE 128 208 128 80
WIRE 208 224 208 176
WIRE 208 224 176 224
WIRE -224 240 -224 208
WIRE 16 240 16 208
WIRE 16 240 -224 240
WIRE -352 256 -352 208
WIRE 176 272 176 224
FLAG 176 272 0
FLAG 176 -80 vdd
FLAG -352 256 0
FLAG -352 96 vdd
FLAG -224 240 0
FLAG 128 80 vd
SYMBOL nmos4 128 128 R0
SYMATTR InstName M1
SYMATTR Value N_1u
SYMATTR Value2 l=1.5u w=3u
SYMBOL current 176 -48 R0
WINDOW 123 0 0 Left 2
WINDOW 39 0 0 Left 2
SYMATTR InstName I1
SYMATTR Value 2.98162e-006
SYMBOL voltage -352 112 R0
WINDOW 123 0 0 Left 2
WINDOW 39 0 0 Left 2
SYMATTR InstName Vdd
SYMATTR Value 5
SYMBOL voltage -224 112 R0
SYMATTR InstName vgs
SYMATTR Value 1
SYMBOL nmos4 -32 96 R0
SYMATTR InstName M2
SYMATTR Value N_1u
SYMATTR Value2 l=1.5u w=3u
TEXT 48 344 Left 2 !.include cmosedu_models.txt
TEXT 48 376 Left 2 !.op
