Version 4
SHEET 1 880 680
WIRE 176 -48 176 -80
WIRE 176 80 176 32
WIRE 176 80 128 80
WIRE -32 128 -32 96
WIRE 176 128 176 80
WIRE 208 176 176 176
WIRE 128 208 128 80
WIRE 208 224 208 176
WIRE 208 224 176 224
WIRE -32 256 -32 208
WIRE 176 272 176 224
FLAG 176 272 0
FLAG 176 -80 vdd
FLAG -32 256 0
FLAG -32 96 vdd
FLAG 128 80 vd
SYMBOL nmos4 128 128 R0
SYMATTR InstName M1
SYMATTR Value N_1u
SYMATTR Value2 l=1.5u w=3u
SYMBOL current 176 -48 R0
WINDOW 123 0 0 Left 2
WINDOW 39 0 0 Left 2
SYMATTR InstName I1
SYMATTR Value 3.92966e-005
SYMBOL voltage -32 112 R0
WINDOW 123 0 0 Left 2
WINDOW 39 0 0 Left 2
SYMATTR InstName Vdd
SYMATTR Value 5
TEXT 48 344 Left 2 !.include cmosedu_models.txt
TEXT 48 376 Left 2 !.op
